  1000.00    294.000     14.000
     0.00    294.000     14.000    -5.0000     0.0000
   100.00    294.702     14.000    -6.0000     1.0000
   200.00    295.403     14.000    -7.0000     2.0000
   300.00    296.105     14.000    -8.0000     3.0000
   400.00    296.806     14.000    -9.0000     4.0000
   500.00    297.508     14.000   -10.0000     5.0000
   600.00    298.209     14.000    -9.0000     6.0000
   700.00    298.911     14.000    -8.0000     7.0000
   800.00    299.612     14.000    -7.0000     8.0000
   900.00    300.314     14.000    -6.0000     9.0000
  1000.00    301.015     14.000    -5.0000    10.0000
  1100.00    301.765     14.000    -4.2720    10.0000
  1200.00    302.418     14.000    -3.5440    10.0000
  1250.00    306.418      6.127    -3.5440    10.0000
  1300.00    306.468      6.127    -2.8160    10.0000
  1400.00    306.568      6.127    -2.0880    10.0000
  1500.00    306.668      6.127    -1.3599    10.0000
  1600.00    306.768      6.127    -0.6319    10.0000
  1700.00    306.868      6.127     0.0961    10.0000
  1800.00    306.968      6.127     0.8241    10.0000
  1900.00    307.068      6.127     1.5521    10.0000
  2000.00    307.168      6.127     2.2801    10.0000
  2100.00    307.268      6.127     3.0081    10.0000
  2200.00    307.368      6.127     3.7361    10.0000
  2300.00    307.468      6.127     4.4641    10.0000
  2400.00    307.568      6.127     5.1921    10.0000
  2500.00    307.668      6.127     5.9202    10.0000
  2600.00    307.768      6.127     6.6482    10.0000
  2700.00    307.868      6.127     7.3762    10.0000
  2800.00    307.968      6.127     8.1042    10.0000
  2900.00    308.068      6.127     8.8322    10.0000
  3000.00    308.168      6.127     9.5602    10.0000
  3100.00    308.268      6.127    10.2882    10.0000
  3200.00    308.368      6.127    11.0162    10.0000
  3300.00    308.563      5.867    11.7443    10.0000
  3400.00    308.889      5.617    12.4723    10.0000
  3500.00    309.217      5.376    13.2003    10.0000
  3600.00    309.547      5.143    13.9283    10.0000
  3700.00    309.880      4.920    14.6563    10.0000
  3800.00    310.215      4.705    15.3843    10.0000
  3900.00    310.552      4.498    16.1123    10.0000
  4000.00    310.891      4.299    16.8403    10.0000
  4100.00    311.232      4.108    17.5683    10.0000
  4200.00    311.576      3.924    18.2964    10.0000
  4300.00    311.921      3.747    19.0244    10.0000
  4400.00    312.269      3.577    19.7524    10.0000
  4500.00    312.618      3.414    20.4804    10.0000
  4600.00    312.970      3.257    21.2084    10.0000
  4700.00    313.323      3.106    21.9364    10.0000
  4800.00    313.679      2.961    22.6644    10.0000
  4900.00    314.036      2.823    23.3924    10.0000
  5000.00    314.395      2.689    24.1204    10.0000
  5100.00    314.756      2.561    24.8485    10.0000
  5200.00    315.118      2.438    25.5765    10.0000
  5300.00    315.482      2.321    26.3045    10.0000
  5400.00    315.848      2.208    27.0325    10.0000
  5500.00    316.216      2.100    27.7605    10.0000
  5600.00    316.585      1.996    28.4885    10.0000
  5700.00    316.956      1.897    29.2165    10.0000
  5800.00    317.329      1.802    29.9445    10.0000
  5900.00    317.703      1.711    30.6725    10.0000
  6000.00    318.079      1.624    31.4006    10.0000
  6100.00    318.457      1.540    31.4006    10.0000
  6200.00    318.836      1.461    31.4006    10.0000
  6300.00    319.216      1.385    31.4006    10.0000
  6400.00    319.598      1.312    31.4006    10.0000
  6500.00    319.982      1.242    31.4006    10.0000
  6600.00    320.367      1.176    31.4006    10.0000
  6700.00    320.753      1.113    31.4006    10.0000
  6800.00    321.141      1.052    31.4006    10.0000
  6900.00    321.530      0.995    31.4006    10.0000
  7000.00    321.921      0.940    31.4006    10.0000
  7100.00    322.313      0.888    31.4006    10.0000
  7200.00    322.707      0.838    31.4006    10.0000
  7300.00    323.102      0.790    31.4006    10.0000
  7400.00    323.498      0.745    31.4006    10.0000
  7500.00    323.896      0.702    31.4006    10.0000
  7600.00    324.295      0.661    31.4006    10.0000
  7700.00    324.695      0.622    31.4006    10.0000
  7800.00    325.096      0.586    31.4006    10.0000
  7900.00    325.499      0.551    31.4006    10.0000
  8000.00    325.903      0.517    31.4006    10.0000
  8100.00    326.309      0.486    31.4006    10.0000
  8200.00    326.715      0.456    31.4006    10.0000
  8300.00    327.123      0.428    31.4006    10.0000
  8400.00    327.532      0.401    31.4006    10.0000
  8500.00    327.943      0.376    31.4006    10.0000
  8600.00    328.354      0.352    31.4006    10.0000
  8700.00    328.767      0.329    31.4006    10.0000
  8800.00    329.181      0.307    31.4006    10.0000
  8900.00    329.596      0.287    31.4006    10.0000
  9000.00    330.012      0.268    31.4006    10.0000
  9100.00    330.429      0.250    31.4006    10.0000
  9200.00    330.848      0.233    31.4006    10.0000
  9300.00    331.268      0.217    31.4006    10.0000
  9400.00    331.689      0.202    31.4006    10.0000
  9500.00    332.110      0.188    31.4006    10.0000
  9600.00    332.534      0.175    31.4006    10.0000
  9700.00    332.958      0.162    31.4006    10.0000
  9800.00    333.383      0.150    31.4006    10.0000
  9900.00    333.809      0.139    31.4006    10.0000
 10000.00    334.237      0.129    31.4006    10.0000
 10100.00    334.665      0.119    31.4006    10.0000
 10200.00    335.095      0.110    31.4006    10.0000
 10300.00    335.525      0.102    31.4006    10.0000
 10400.00    335.957      0.094    31.4006    10.0000
 10500.00    336.390      0.087    31.4006    10.0000
 10600.00    336.823      0.080    31.4006    10.0000
 10700.00    337.258      0.073    31.4006    10.0000
 10800.00    337.694      0.067    31.4006    10.0000
 10900.00    338.131      0.062    31.4006    10.0000
 11000.00    338.569      0.057    31.4006    10.0000
 11100.00    339.007      0.052    31.4006    10.0000
 11200.00    339.447      0.047    31.4006    10.0000
 11300.00    339.888      0.043    31.4006    10.0000
 11400.00    340.329      0.040    31.4006    10.0000
 11500.00    340.772      0.036    31.4006    10.0000
 11600.00    341.216      0.033    31.4006    10.0000
 11700.00    341.660      0.030    31.4006    10.0000
 11800.00    342.106      0.027    31.4006    10.0000
 11900.00    342.553      0.024    31.4006    10.0000
 12000.00    343.000      0.022    31.4006    10.0000
 12100.00    344.577      0.022    31.4006    10.0000
 12200.00    346.161      0.023    31.4006    10.0000
 12300.00    347.753      0.023    31.4006    10.0000
 12400.00    349.352      0.024    31.4006    10.0000
 12500.00    350.958      0.024    31.4006    10.0000
 12600.00    352.572      0.025    31.4006    10.0000
 12700.00    354.193      0.025    31.4006    10.0000
 12800.00    355.821      0.025    31.4006    10.0000
 12900.00    357.457      0.026    31.4006    10.0000
 13000.00    359.101      0.026    31.4006    10.0000
 13100.00    360.752      0.027    31.4006    10.0000
 13200.00    362.411      0.027    31.4006    10.0000
 13300.00    364.077      0.028    31.4006    10.0000
 13400.00    365.751      0.028    31.4006    10.0000
 13500.00    367.433      0.029    31.4006    10.0000
 13600.00    369.122      0.029    31.4006    10.0000
 13700.00    370.819      0.030    31.4006    10.0000
 13800.00    372.524      0.031    31.4006    10.0000
 13900.00    374.237      0.031    31.4006    10.0000
 14000.00    375.958      0.032    31.4006    10.0000
 14100.00    377.686      0.032    31.4006    10.0000
 14200.00    379.423      0.033    31.4006    10.0000
 14300.00    381.167      0.034    31.4006    10.0000
 14400.00    382.920      0.034    31.4006    10.0000
 14500.00    384.680      0.035    31.4006    10.0000
 14600.00    386.449      0.035    31.4006    10.0000
 14700.00    388.226      0.036    31.4006    10.0000
 14800.00    390.011      0.037    31.4006    10.0000
 14900.00    391.804      0.037    31.4006    10.0000
 15000.00    393.605      0.038    31.4006    10.0000
 15100.00    395.415      0.039    31.4006    10.0000
 15200.00    397.233      0.040    31.4006    10.0000
 15300.00    399.060      0.040    31.4006    10.0000
 15400.00    400.894      0.041    31.4006    10.0000
 15500.00    402.738      0.042    31.4006    10.0000
 15600.00    404.589      0.043    31.4006    10.0000
 15700.00    406.450      0.043    31.4006    10.0000
 15800.00    408.318      0.044    31.4006    10.0000
 15900.00    410.196      0.045    31.4006    10.0000
 16000.00    412.082      0.046    31.4006    10.0000
 16100.00    413.976      0.047    31.4006    10.0000
 16200.00    415.880      0.048    31.4006    10.0000
 16300.00    417.792      0.048    31.4006    10.0000
 16400.00    419.713      0.049    31.4006    10.0000
 16500.00    421.643      0.050    31.4006    10.0000
 16600.00    423.581      0.051    31.4006    10.0000
 16700.00    425.529      0.052    31.4006    10.0000
 16800.00    427.485      0.053    31.4006    10.0000
 16900.00    429.451      0.054    31.4006    10.0000
 17000.00    431.425      0.055    31.4006    10.0000
 17100.00    433.409      0.056    31.4006    10.0000
 17200.00    435.402      0.057    31.4006    10.0000
 17300.00    437.404      0.058    31.4006    10.0000
 17400.00    439.415      0.059    31.4006    10.0000
 17500.00    441.435      0.061    31.4006    10.0000
 17600.00    443.465      0.062    31.4006    10.0000
 17700.00    445.504      0.063    31.4006    10.0000
 17800.00    447.552      0.064    31.4006    10.0000
 17900.00    449.610      0.065    31.4006    10.0000
 18000.00    451.677      0.066    31.4006    10.0000
 18100.00    453.754      0.068    31.4006    10.0000
 18200.00    455.840      0.069    31.4006    10.0000
 18300.00    457.936      0.070    31.4006    10.0000
 18400.00    460.042      0.072    31.4006    10.0000
 18500.00    462.157      0.073    31.4006    10.0000
 18600.00    464.282      0.074    31.4006    10.0000
 18700.00    466.416      0.076    31.4006    10.0000
 18800.00    468.561      0.077    31.4006    10.0000
 18900.00    470.715      0.079    31.4006    10.0000
 19000.00    472.879      0.080    31.4006    10.0000
 19100.00    475.054      0.082    31.4006    10.0000
 19200.00    477.238      0.083    31.4006    10.0000
 19300.00    479.432      0.085    31.4006    10.0000
 19400.00    481.636      0.087    31.4006    10.0000
 19500.00    483.851      0.088    31.4006    10.0000
 19600.00    486.076      0.090    31.4006    10.0000
 19700.00    488.310      0.092    31.4006    10.0000
 19800.00    490.556      0.093    31.4006    10.0000
 19900.00    492.811      0.095    31.4006    10.0000
 20000.00    495.077      0.097    31.4006    10.0000
